Circuit: * D:\Eigene Dateien\Bastelprojekte\ReBox\sim\relay_driver.asc

Direct Newton iteration for .op point succeeded.

Date: Sun Dec 26 17:00:09 2021
Total elapsed time: 0.518 seconds.

tnom = 27
temp = 27
method = modified trap
totiter = 44862
traniter = 44838
tranpoints = 15525
accept = 11916
rejected = 3609
matrix size = 42
fillins = 25
solver = Normal
Matrix Compiler1: 3.40 KB object code size  0.8/0.3/[0.2]
Matrix Compiler2: off  [0.3]/0.4/0.3

